Version 4
SHEET 1 880 680
WIRE 480 160 336 160
WIRE 336 256 336 240
WIRE 400 256 336 256
WIRE 480 272 480 240
WIRE 288 336 64 336
WIRE 64 368 64 336
WIRE 336 432 336 352
FLAG 64 448 0
FLAG 336 432 0
FLAG 480 272 0
FLAG 400 256 Vout
SYMBOL nmos4 288 256 R0
SYMATTR InstName M1
SYMATTR Value CMOSN
SYMATTR Value2 l=0.18u w=4u ad=1.8p as=1.8p pd=8.9u ps=8.9u
SYMBOL voltage 480 144 R0
SYMATTR InstName VDD
SYMATTR Value 500m
SYMBOL voltage 64 352 R0
SYMATTR InstName VGS
SYMATTR Value ""
SYMBOL res 320 144 R0
SYMATTR InstName RL
SYMATTR Value 1k
TEXT 416 384 Left 2 !.dc VGS 500m 552m 0.01
TEXT 416 416 Left 2 !.include TSMC_180nm.txt
